LTspice 24.0.9 for Windows
Circuit: * C:\IIITH\IIIT Assignments\S25\Ew2\AM-Modulator-Demodulator\ce_amplifier.asc
Start Time: Tue Mar 11 11:10:02 2025
Warning: Multiple definitions of model "2scr375p" Type: BJT
Warning: Multiple definitions of model "bc857b" Type: BJT
Warning: Multiple definitions of model "bc847c" Type: BJT
Warning: Multiple definitions of model "bc847b" Type: BJT
solver = Normal
Maximum thread count: 12
tnom = 27
temp = 27
method = modified trap
WARNING: Node NC_01 is floating.

WARNING: Less than two connections to node nc_01.  This node is used by c2.
Direct Newton iteration for .op point succeeded.
Total elapsed time: 0.043 seconds.

