Circuit: * C:\Users\madha\Desktop\AM-Modulator-Demodulator\ce_amplifier.asc

Warning: Multiple definitions of model "2scr375p" Type: BJT
Warning: Multiple definitions of model "bc857b" Type: BJT
Warning: Multiple definitions of model "bc847c" Type: BJT
Warning: Multiple definitions of model "bc847b" Type: BJT
WARNING: Node OUTPUT is floating.

WARNING: Less than two connections to node output.  This node is used by c2.
Direct Newton iteration for .op point succeeded.

Date: Fri Mar 21 11:06:56 2025
Total elapsed time: 0.088 seconds.

tnom = 27
temp = 27
method = modified trap
totiter = 2092
traniter = 2083
tranpoints = 1042
accept = 1042
rejected = 0
matrix size = 11
fillins = 0
solver = Normal
Avg thread counts: 3.8/6.7/6.7/3.8
Matrix Compiler1: 628 bytes object code size  0.3/0.3/[0.2]
Matrix Compiler2: 835 bytes object code size  0.2/0.3/[0.2]

