Circuit: * C:\Users\madha\Desktop\AM-Modulator-Demodulator\Full_Circuit.asc

Warning: Multiple definitions of model "2scr375p" Type: BJT
Warning: Multiple definitions of model "bc857b" Type: BJT
Warning: Multiple definitions of model "bc847c" Type: BJT
Warning: Multiple definitions of model "bc847b" Type: BJT
Ignoring BSIM parameter XL
Ignoring BSIM parameter XW
WARNING: Node N011 is floating.
WARNING: Node N012 is floating.

WARNING: Less than two connections to node n011.  This node is used by m1.
WARNING: Less than two connections to node n012.  This node is used by m2.
Direct Newton iteration for .op point succeeded.

Date: Tue Mar 11 12:47:22 2025
Total elapsed time: 3.735 seconds.

tnom = 27
temp = 27
method = modified trap
totiter = 606976
traniter = 606961
tranpoints = 191435
accept = 129103
rejected = 62332
matrix size = 50
fillins = 96
solver = Normal
Avg thread counts: 1.0/1.0/1.0/1.0
Matrix Compiler1:     466 opcodes  1.7/[0.9]/1.1
Matrix Compiler2: 5.81 KB object code size  0.5/0.9/[0.4]

