Circuit: * C:\Users\madha\Desktop\AM-Modulator-Demodulator\Full_Circuit.asc

Warning: Multiple definitions of model "2scr375p" Type: BJT
Warning: Multiple definitions of model "bc857b" Type: BJT
Warning: Multiple definitions of model "bc847c" Type: BJT
Warning: Multiple definitions of model "bc847b" Type: BJT
Ignoring BSIM parameter XL
Ignoring BSIM parameter XW
WARNING: Node N008 is floating.
WARNING: Node N009 is floating.
WARNING: Node NC_01 is floating.

WARNING: Less than two connections to node n008.  This node is used by m1.
WARNING: Less than two connections to node n009.  This node is used by m2.
WARNING: Less than two connections to node nc_01.  This node is used by c4.
Direct Newton iteration for .op point succeeded.

Date: Tue Mar 18 12:00:07 2025
Total elapsed time: 3.984 seconds.

tnom = 27
temp = 27
method = modified trap
totiter = 610353
traniter = 610338
tranpoints = 192298
accept = 129794
rejected = 62504
matrix size = 51
fillins = 96
solver = Normal
Avg thread counts: 1.0/1.0/1.0/1.0
Matrix Compiler1: 8.67 KB object code size  2.0/1.2/[1.1]
Matrix Compiler2: 5.88 KB object code size  0.8/1.4/[0.7]

