LTspice 24.0.9 for Windows
Circuit: * C:\IIITH\IIIT Assignments\S25\Ew2\AM-Modulator-Demodulator\mod_demod_combined.asc
Start Time: Tue Mar 11 11:14:20 2025
Ignoring BSIM parameter XL
Ignoring BSIM parameter XW
solver = Normal
Maximum thread count: 12
tnom = 27
temp = 27
method = modified trap
WARNING: Node N005 is floating.
WARNING: Node N007 is floating.

WARNING: Less than two connections to node n005.  This node is used by m1.
WARNING: Less than two connections to node n007.  This node is used by m2.
Direct Newton iteration for .op point succeeded.
Total elapsed time: 0.100 seconds.

