Circuit: * C:\Users\madha\Desktop\AM-Modulator-Demodulator\tank_amplifier_combined.asc

Warning: Multiple definitions of model "2scr375p" Type: BJT
Warning: Multiple definitions of model "bc857b" Type: BJT
Warning: Multiple definitions of model "bc847c" Type: BJT
Warning: Multiple definitions of model "bc847b" Type: BJT
Direct Newton iteration for .op point succeeded.

Date: Tue Mar 11 11:31:55 2025
Total elapsed time: 2.026 seconds.

tnom = 27
temp = 27
method = modified trap
totiter = 601605
traniter = 601596
tranpoints = 196617
accept = 131132
rejected = 65485
matrix size = 11
fillins = 4
solver = Normal
Avg thread counts: 1.0/1.0/1.0/1.0
Matrix Compiler1: 886 bytes object code size  0.3/0.2/[0.1]
Matrix Compiler2: off  [0.1]/0.2/0.2

