Circuit: * C:\Users\madha\Desktop\AM-Modulator-Demodulator\tank_amplifier_combined.asc

Warning: Multiple definitions of model "2scr375p" Type: BJT
Warning: Multiple definitions of model "bc857b" Type: BJT
Warning: Multiple definitions of model "bc847c" Type: BJT
Warning: Multiple definitions of model "bc847b" Type: BJT
WARNING: Node P001 is floating.

Direct Newton iteration for .op point succeeded.

Date: Fri Mar 21 11:29:32 2025
Total elapsed time: 7.075 seconds.

tnom = 27
temp = 27
method = modified trap
totiter = 1629802
traniter = 1629793
tranpoints = 529457
accept = 362407
rejected = 167050
matrix size = 11
fillins = 6
solver = Normal
Avg thread counts: 1.0/1.0/1.0/1.0
Matrix Compiler1: 966 bytes object code size  0.6/0.3/[0.3]
Matrix Compiler2: 997 bytes object code size  0.2/0.3/[0.1]

